<NUMBER OF ZONES> 3
<NUMBER OF NODES> 13
<FIRST THRU NODE> 1
<NUMBER OF LINKS> 19
<ORIGINAL HEADER>
<END OF METADATA>


~	init_node	term_node	capacity	length	free_flow_time	b	power	speed	toll	link_type	;
	1	5	120	1	3	1	1	1	1	1	;
	1	12	120	1	1	1	1	1	1	1	;
	5	4	30	1	3	1	1	1	1	1	;
	4	9	30	1	2	1	1	1	1	1	;
	5	6	30	1	3	1	1	1	1	1	;
	5	9	30	1	3	1	1	1	1	1	;
	6	7	30	1	4	1	1	1	1	1	;
	6	10	30	1	4	1	1	1	1	1	;
	7	8	30	1	3	1	1	1	1	1	;
	7	11	30	1	3	1	1	1	1	1	;
	8	2	30	1	3	1	1	1	1	1	;
	9	10	30	1	3	1	1	1	1	1	;
	9	13	30	1	2	1	1	1	1	1	;
	10	11	30	1	3	1	1	1	1	1	;
	11	2	30	1	3	1	1	1	1	1	;
	11	3	30	1	3	1	1	1	1	1	;
	12	6	30	1	3	1	1	1	1	1	;
	12	8	30	1	3	1	1	1	1	1	;
	13	3	30	1	3	1	1	1	1	1	;
